1
2
.dc V99 0 2.5 100m
3
1
/Analog_output
V
1
/Buffered_output
V
1
/DA_Output
V
